FoamFile
{
    version     2.0;
    format      ascii;
    class       dictionary;
    object      decomposeParDict;
}
numberOfSubdomains 192;
method          scotch;

simpleCoeffs
{
    n               (6 2 8 );
    delta           0.001;
}

distributed     no;
roots           ();
